<?xml version="1.0" encoding="UTF-8"?>

<!-- generated on 02/27/19 16:08:58 by Eclipse SUMO netedit Version v1_1_0+0008-ffcb6ceee0
<configuration xmlns:xsi="http://www.w3.org/2001/XMLSchema-instance" xsi:noNamespaceSchemaLocation="http://sumo.dlr.de/xsd/netconvertConfiguration.xsd">

    <input>
        <sumo-net-file value="E:\oneDriveData\OneDrive\SUMO\my1laneEx1NoTrafficLightEVeh\my1LaneMap1.net.xml"/>
    </input>

    <output>
        <output-file value="E:\oneDriveData\OneDrive\SUMO\my1laneEx1NoTrafficLightEVeh\my2LaneMap1.net.xml"/>
    </output>

    <processing>
        <geometry.max-grade.fix value="false"/>
        <offset.disable-normalization value="true"/>
        <lefthand value="false"/>
    </processing>

    <junctions>
        <no-turnarounds value="true"/>
        <junctions.corner-detail value="0"/>
        <junctions.limit-turn-speed value="-1"/>
        <rectangular-lane-cut value="false"/>
    </junctions>

    <pedestrian>
        <walkingareas value="false"/>
    </pedestrian>

</configuration>
-->

<net version="1.1" xmlns:xsi="http://www.w3.org/2001/XMLSchema-instance" xsi:noNamespaceSchemaLocation="http://sumo.dlr.de/xsd/net_file.xsd">

    <location netOffset="0.00,0.00" convBoundary="0.00,0.00,2400.00,1200.00" origBoundary="0.00,0.00,2400.00,1200.00" projParameter="!"/>

    <edge id=":node0_0" function="internal">
        <lane id=":node0_0_0" index="0" speed="11.11" length="7.74" shape="-4.80,0.00 -4.50,-2.10 -3.60,-3.60 -2.10,-4.50 0.00,-4.80"/>
    </edge>
    <edge id=":node0_1" function="internal">
        <lane id=":node0_1_0" index="0" speed="11.11" length="2.58" shape="-1.60,0.00 -1.50,-0.70 -1.20,-1.20 -0.70,-1.50 0.00,-1.60"/>
    </edge>
    <edge id=":node1_0" function="internal">
        <lane id=":node1_0_0" index="0" speed="11.11" length="7.74" shape="2400.00,-4.80 2402.10,-4.50 2403.60,-3.60 2404.50,-2.10 2404.80,0.00"/>
    </edge>
    <edge id=":node1_1" function="internal">
        <lane id=":node1_1_0" index="0" speed="11.11" length="2.58" shape="2400.00,-1.60 2400.70,-1.50 2401.20,-1.20 2401.50,-0.70 2401.60,0.00"/>
    </edge>
    <edge id=":node2_0" function="internal">
        <lane id=":node2_0_0" index="0" speed="11.11" length="7.74" shape="2404.80,1200.00 2404.50,1202.10 2403.60,1203.60 2402.10,1204.50 2400.00,1204.80"/>
    </edge>
    <edge id=":node2_1" function="internal">
        <lane id=":node2_1_0" index="0" speed="11.11" length="2.58" shape="2401.60,1200.00 2401.50,1200.70 2401.20,1201.20 2400.70,1201.50 2400.00,1201.60"/>
    </edge>
    <edge id=":node3_0" function="internal">
        <lane id=":node3_0_0" index="0" speed="11.11" length="7.74" shape="0.00,1204.80 -2.10,1204.50 -3.60,1203.60 -4.50,1202.10 -4.80,1200.00"/>
    </edge>
    <edge id=":node3_1" function="internal">
        <lane id=":node3_1_0" index="0" speed="11.11" length="2.58" shape="0.00,1201.60 -0.70,1201.50 -1.20,1201.20 -1.50,1200.70 -1.60,1200.00"/>
    </edge>

    <edge id="E1" from="node1" to="node2" priority="2">
        <lane id="E1_0" index="0" speed="11.11" length="1200.00" shape="2404.80,0.00 2404.80,1200.00"/>
        <lane id="E1_1" index="1" speed="11.11" length="1200.00" shape="2401.60,0.00 2401.60,1200.00"/>
    </edge>
    <edge id="N1" from="node2" to="node3" priority="2">
        <lane id="N1_0" index="0" speed="11.11" length="2400.00" shape="2400.00,1204.80 0.00,1204.80"/>
        <lane id="N1_1" index="1" speed="11.11" length="2400.00" shape="2400.00,1201.60 0.00,1201.60"/>
    </edge>
    <edge id="S1" from="node0" to="node1" priority="2">
        <lane id="S1_0" index="0" speed="11.11" length="2400.00" shape="0.00,-4.80 2400.00,-4.80"/>
        <lane id="S1_1" index="1" speed="11.11" length="2400.00" shape="0.00,-1.60 2400.00,-1.60"/>
    </edge>
    <edge id="W1" from="node3" to="node0" priority="2">
        <lane id="W1_0" index="0" speed="11.11" length="1200.00" shape="-4.80,1200.00 -4.80,0.00"/>
        <lane id="W1_1" index="1" speed="11.11" length="1200.00" shape="-1.60,1200.00 -1.60,0.00"/>
    </edge>

    <junction id="node0" type="priority" x="0.00" y="0.00" incLanes="W1_0 W1_1" intLanes=":node0_0_0 :node0_1_0" shape="-6.40,0.00 0.00,0.00 0.00,-6.40">
        <request index="0" response="00" foes="00" cont="0"/>
        <request index="1" response="00" foes="00" cont="0"/>
    </junction>
    <junction id="node1" type="priority" x="2400.00" y="0.00" incLanes="S1_0 S1_1" intLanes=":node1_0_0 :node1_1_0" shape="2400.00,0.00 2406.40,0.00 2400.00,-6.40">
        <request index="0" response="00" foes="00" cont="0"/>
        <request index="1" response="00" foes="00" cont="0"/>
    </junction>
    <junction id="node2" type="priority" x="2400.00" y="1200.00" incLanes="E1_0 E1_1" intLanes=":node2_0_0 :node2_1_0" shape="2406.40,1200.00 2400.00,1200.00 2400.00,1206.40">
        <request index="0" response="00" foes="00" cont="0"/>
        <request index="1" response="00" foes="00" cont="0"/>
    </junction>
    <junction id="node3" type="priority" x="0.00" y="1200.00" incLanes="N1_0 N1_1" intLanes=":node3_0_0 :node3_1_0" shape="0.00,1206.40 0.00,1200.00 -6.40,1200.00">
        <request index="0" response="00" foes="00" cont="0"/>
        <request index="1" response="00" foes="00" cont="0"/>
    </junction>

    <connection from="E1" to="N1" fromLane="0" toLane="0" via=":node2_0_0" dir="l" state="M"/>
    <connection from="E1" to="N1" fromLane="1" toLane="1" via=":node2_1_0" dir="l" state="M"/>
    <connection from="N1" to="W1" fromLane="0" toLane="0" via=":node3_0_0" dir="l" state="M"/>
    <connection from="N1" to="W1" fromLane="1" toLane="1" via=":node3_1_0" dir="l" state="M"/>
    <connection from="S1" to="E1" fromLane="0" toLane="0" via=":node1_0_0" dir="l" state="M"/>
    <connection from="S1" to="E1" fromLane="1" toLane="1" via=":node1_1_0" dir="l" state="M"/>
    <connection from="W1" to="S1" fromLane="0" toLane="0" via=":node0_0_0" dir="l" state="M"/>
    <connection from="W1" to="S1" fromLane="1" toLane="1" via=":node0_1_0" dir="l" state="M"/>

    <connection from=":node0_0" to="S1" fromLane="0" toLane="0" dir="l" state="M"/>
    <connection from=":node0_1" to="S1" fromLane="0" toLane="1" dir="l" state="M"/>
    <connection from=":node1_0" to="E1" fromLane="0" toLane="0" dir="l" state="M"/>
    <connection from=":node1_1" to="E1" fromLane="0" toLane="1" dir="l" state="M"/>
    <connection from=":node2_0" to="N1" fromLane="0" toLane="0" dir="l" state="M"/>
    <connection from=":node2_1" to="N1" fromLane="0" toLane="1" dir="l" state="M"/>
    <connection from=":node3_0" to="W1" fromLane="0" toLane="0" dir="l" state="M"/>
    <connection from=":node3_1" to="W1" fromLane="0" toLane="1" dir="l" state="M"/>

</net>
